FoamFile
{
    version     2.0;
    format      ascii;
    class       dictionary;
    object      blockMeshDict;
}

// ************************************************************************** //

#include "include/controlVolume"

// ************************************************************************** //

convertToMeters 1.0;

// ************************************************************************** //B

vertices
(
    (  $controlVol_x_min               0.0 $controlVol_z_min )
    ( $mainSection_x_min               0.0 $controlVol_z_min )
    ( $mainSection_x_max               0.0 $controlVol_z_min )
    (  $controlVol_x_max               0.0 $controlVol_z_min )
    (  $controlVol_x_min $controlVol_y_max $controlVol_z_min )
    ( $mainSection_x_min $controlVol_y_max $controlVol_z_min )
    ( $mainSection_x_max $controlVol_y_max $controlVol_z_min )
    (  $controlVol_x_max $controlVol_y_max $controlVol_z_min )
    (  $controlVol_x_min               0.0               0.0 )
    ( $mainSection_x_min               0.0               0.0 )
    ( $mainSection_x_max               0.0               0.0 )
    (  $controlVol_x_max               0.0               0.0 )
    (  $controlVol_x_min $controlVol_y_max               0.0 )
    ( $mainSection_x_min $controlVol_y_max               0.0 )
    ( $mainSection_x_max $controlVol_y_max               0.0 )
    (  $controlVol_x_max $controlVol_y_max               0.0 )
    (  $controlVol_x_min               0.0 $controlVol_z_max )
    ( $mainSection_x_min               0.0 $controlVol_z_max )
    ( $mainSection_x_max               0.0 $controlVol_z_max )
    (  $controlVol_x_max               0.0 $controlVol_z_max )
    (  $controlVol_x_min $controlVol_y_max $controlVol_z_max )
    ( $mainSection_x_min $controlVol_y_max $controlVol_z_max )
    ( $mainSection_x_max $controlVol_y_max $controlVol_z_max )
    (  $controlVol_x_max $controlVol_y_max $controlVol_z_max )
);

// ************************************************************************** //

blocks
(
    // inlet section
    hex (  0  1  5  4  8  9 13 12 ) ( $numberOfCellsInlet_x $numberOfCells_y $numberOfCells_z ) simpleGrading ( $gradingInlet_x 1.0 1.0 )
    hex (  8  9 13 12 16 17 21 20 ) ( $numberOfCellsInlet_x $numberOfCells_y $numberOfCells_z ) simpleGrading ( $gradingInlet_x 1.0 1.0 )
    
    // main section
    hex (  1  2  6  5  9 10 14 13 ) ( $numberOfCellsMain_x $numberOfCells_y $numberOfCells_z ) simpleGrading ( 1.0 1.0 1.0 )
    hex (  9 10 14 13 17 18 22 21 ) ( $numberOfCellsMain_x $numberOfCells_y $numberOfCells_z ) simpleGrading ( 1.0 1.0 1.0 )
    
    // outlet section
    hex (  2  3  7  6 10 11 15 14 ) ( $numberOfCellsOutlet_x $numberOfCells_y $numberOfCells_z ) simpleGrading ( $gradingOutlet_x 1.0 1.0 )
    hex ( 10 11 15 14 18 19 23 22 ) ( $numberOfCellsOutlet_x $numberOfCells_y $numberOfCells_z ) simpleGrading ( $gradingOutlet_x 1.0 1.0 )
);

// ************************************************************************** //

edges
(
);

// ************************************************************************** //

boundary
(
    inlet
    {
        type patch;
        faces
        (
            (  0  8 12  4 )
            (  8 16 20 12 )
        );
    }
    
    outlet
    {
        type patch;
        faces
        (
            (  3  7 15 11 )
            ( 11 15 23 19 )
        );
    }
    
    sym
    {
        type symmetryPlane;
        faces
        (
            // left
            (  0  1  9  8 )
            (  8  9 17 16 )
            (  1  2 10  9 )
            (  9 10 18 17 )
            (  2  3 11 10 )
            ( 10 11 19 18 )
        );
    }
    
    walls
    {
        type patch;
        faces
        (
            // right
            (  4 12 13  5 ) 
            ( 12 20 21 13 )
            (  5 13 14  6 )
            ( 13 21 22 14 )
            (  6 14 15  7 )
            ( 14 22 23 15 )
            
            // bottom
            (  0  4  5  1 ) 
            (  1  5  6  2 ) 
            (  2  6  7  3 )
            
            // top
            ( 16 17 21 20 )
            ( 17 18 22 21 )
            ( 18 19 23 22 )
        );
    }
);

// ************************************************************************** //

mergePatchPairs
(
);

// ************************************************************************** //
