FoamFile
{
    version     2.0;
    format      ascii;
    class       dictionary;
    object      snappyHexMeshDict;
}

// ************************************************************************** //

#include "include/geometryRefinement"
#include "include/materialPoint"

// ************************************************************************** //

castellatedMesh true;
snap            true;
addLayers       false;

// ************************************************************************** //

geometry
{
    model
    {
        type triSurfaceMesh;
        file "model.stl";
    }
};

// ************************************************************************** //

castellatedMeshControls
{
    locationInMesh ( $materialPnt_x $materialPnt_y $materialPnt_z );
    
    allowFreeStandingZoneFaces true;
    
    maxLocalCells 1000000;
    maxGlobalCells 2000000;
    minRefinementCells 0;
    maxLoadUnbalance 0.1;
    nCellsBetweenLevels 3;
    
    // Explicit feature edge refinement
    features
    (
        {
            file "model.eMesh";
            level $geometryFeaturesRefinement_level;
        }
    );
    
    // Surface based refinement
    refinementSurfaces
    {
        model
        {
            level ( $geometrySurfacesRefinement_level_min $geometrySurfacesRefinement_level_max );

            patchInfo
            {
                type wall;
            }
        }
    }
     
    resolveFeatureAngle 30;
    
    // Region-wise refinement
    refinementRegions
    {
        model
        {
            mode    distance;
            levels	(($nearGeometryRefinement_distance $nearGeometryRefinement_level));
        }
    }
}

// ************************************************************************** //

snapControls
{
    nSmoothPatch 3;
    tolerance 1.0;
    nSolveIter 100;
    nRelaxIter 5;
    
    // Feature snapping
    nFeatureSnapIter 10;
    implicitFeatureSnap true;
    explicitFeatureSnap true;
    multiRegionFeatureSnap true;
    nFaceSplitInterval 5;
}

// ************************************************************************** //

addLayersControls
{
    layers
    {
    }
    
    relativeSizes true;
    expansionRatio 2.0;
    finalLayerThickness 0.4;
    // firstLayerThickness 0.3;
    // thickness 0.5;
    minThickness 0.2;
    nGrow 0;

    // Advanced settings
    featureAngle 60;
    slipFeatureAngle 30;
    nRelaxIter 5;
    nSmoothSurfaceNormals 1; 
    nSmoothNormals 3;
    nSmoothThickness 10;
    maxFaceThicknessRatio 0.5;
    maxThicknessToMedialRatio 0.3;
    minMedianAxisAngle 90;
    nBufferCellsNoExtrude 0;
    nLayerIter 50;
    nRelaxedIter 20;
}

// ************************************************************************** //

meshQualityControls
{
    maxNonOrtho 45;
    maxBoundarySkewness 20;
    maxInternalSkewness 4;
    maxConcave 80;
    minFlatness 0.5;
    minTetQuality 1e-9;
    minVol 1.0e-13;
    minArea -1;
    minTwist 0.05;
    minDeterminant 0.001;
    minFaceWeight 0.05;
    minVolRatio 0.01;
    minTriangleTwist -1;
    nSmoothScale 4;
    errorReduction 0.75;
    relaxed
    {
        maxNonOrtho 75;
    }
}

// ************************************************************************** //

mergeTolerance 1e-6;

// ************************************************************************* //
