/*--------------------------------*- C++ -*----------------------------------*\
| =========                 |                                                 |
| \\      /  F ield         | OpenFOAM: The Open Source CFD Toolbox           |
|  \\    /   O peration     | Version:  v2206                                 |
|   \\  /    A nd           | Website:  www.openfoam.com                      |
|    \\/     M anipulation  |                                                 |
\*---------------------------------------------------------------------------*/
FoamFile
{
    version     2.0;
    format      ascii;
    class       volVectorField;
    location    "0";
    object      U;
}
// * * * * * * * * * * * * * * * * * * * * * * * * * * * * * * * * * * * * * //

#include "include/boundaryConditions"

// ************************************************************************* //


dimensions [ 0 1 -1 0 0 0 0 ];

internalField uniform ($flowVelocity 0 0);


boundaryField
{
    inlet
    {
        type        fixedValue;
        value       $internalField;
    }

    outlet
    {
        type            freestreamVelocity;
        freestreamValue $internalField;
    }

    freestream
    {
        type            freestreamVelocity;
        freestreamValue $internalField;
    }
    
    model
    {
        type        noSlip;
    }
    
    "proc.*"
    {
        type        processor;
    }
}

// ************************************************************************* //
