/*--------------------------------*- C++ -*----------------------------------*\
| =========                 |                                                 |
| \\      /  F ield         | OpenFOAM: The Open Source CFD Toolbox           |
|  \\    /   O peration     | Version:  v2306                                 |
|   \\  /    A nd           | Website:  www.openfoam.com                      |
|    \\/     M anipulation  |                                                 |
\*---------------------------------------------------------------------------*/
FoamFile
{
    version     2.0;
    format      ascii;
    class       volScalarField;
    location    "0";
    object      nut;
}
// * * * * * * * * * * * * * * * * * * * * * * * * * * * * * * * * * * * * * //

#include "include/boundaryConditions"

// ************************************************************************* //

dimensions [0 2 -1 0 0 0 0];

internalField uniform $turbulentVisc;


boundaryField
{
    "(inlet|outlet|freestream)"
    {
        type        calculated;
        value       $internalField;
    }

    model
    {
        type        boundaryCorrectedNutLowReWallFunction;
        value       uniform 0;
    }
    
    "proc.*"
    {
        type        processor;
    }
}

// ************************************************************************* //
