FoamFile
{
    version     2.0;
    format      ascii;
    class       dictionary;
    object      blockMeshDict;
}

// ************************************************************************** //

#include "include/controlVolume"

// ************************************************************************** //

scale 1.0;

// ************************************************************************** //

vertices
(
    ( $controlVol_x_min  $controlVol_y_min  $controlVol_z_min )
    ( $controlVol_x_max  $controlVol_y_min  $controlVol_z_min )
    ( $controlVol_x_min  $controlVol_y_max  $controlVol_z_min )
    ( $controlVol_x_max  $controlVol_y_max  $controlVol_z_min )
    ( $controlVol_x_min  $controlVol_y_min  $controlVol_z_max )
    ( $controlVol_x_max  $controlVol_y_min  $controlVol_z_max )
    ( $controlVol_x_min  $controlVol_y_max  $controlVol_z_max )
    ( $controlVol_x_max  $controlVol_y_max  $controlVol_z_max )
);

// ************************************************************************** //

blocks
(
    hex ( 0 1 3 2 4 5 7 6 ) ( $numberOfCells_x $numberOfCells_y $numberOfCells_z ) simpleGrading ( 1 1 1 )
);

// ************************************************************************** //

edges
(
);

// ************************************************************************** //

boundary
(
    inlet
    {
        type patch;
        faces
        (
            ( 0 4 6 2 )
        );
    }
    
    outlet
    {
        type patch;
        faces
        (
            ( 1 3 7 5 )
        );
    }
    
    walls
    {
        type patch;
        faces
        (
            ( 0 1 5 4 ) // left
            ( 2 6 7 3 ) // right
            ( 0 2 3 1 ) // bottom
            ( 4 5 7 6 ) // top
        );
    }
);

// ************************************************************************** //

mergePatchPairs
(
);

// ************************************************************************** //
